%mem=8GB
%nproc=8
# HF/6-31G* scf=tight iop(6/33=2) pop=chelpg

Title Card Required

-1 1
 C
 H                  1              B1
 H                  1              B2    2              A1
 H                  1              B3    3              A2    2              D1
 C                  1              B4    3              A3    2              D2
 O                  5              B5    1              A4    3              D3
 N                  5              B6    1              A5    6              D4
 H                  7              B7    5              A6    1              D5
 C                  7              B8    5              A7    1              D6
 H                  9              B9    7              A8    5              D7
 C                  9             B10    7              A9    5              D8
 H                 11             B11    9             A10    7              D9
 H                 11             B12    9             A11    7             D10
 C                 11             B13    9             A12    7             D11
 C                 14             B14   11             A13    9             D12
 H                 15             B15   14             A14   11             D13
 C                 15             B16   14             A15   11             D14
 H                 17             B17   15             A16   14             D15
 C                 17             B18   15             A17   14             D16
 O                 19             B19   17             A18   15             D17
 C                 20             B20   19             A19   17             D18
 H                 21             B21   20             A20   19             D19
 H                 21             B22   20             A21   19             D20
 H                 21             B23   20             A22   19             D21
 C                 19             B24   17             A23   15             D22
 H                 25             B25   19             A24   17             D23
 C                 25             B26   19             A25   17             D24
 H                 27             B27   25             A26   19             D25
 C                  9             B28    7             A27    5             D26
 O                 29             B29    9             A28    7             D27
 O                 29             B30    9             A29    7             D28

   B1             1.08473635
   B2             1.08338672
   B3             1.08409335
   B4             1.52067904
   B5             1.21238322
   B6             1.33039419
   B7             0.99942609
   B8             1.45287892
   B9             1.08541927
   B10            1.54821512
   B11            1.08204297
   B12            1.08382350
   B13            1.51625028
   B14            1.38666567
   B15            1.07331695
   B16            1.39069360
   B17            1.07380208
   B18            1.38485221
   B19            1.36368568
   B20            1.39153274
   B21            1.08597087
   B22            1.08190336
   B23            1.08632898
   B24            1.38792749
   B25            1.07534315
   B26            1.38178663
   B27            1.07575730
   B28            1.56482109
   B29            1.23549227
   B30            1.22920375
   A1           109.09547577
   A2           109.31201270
   A3           113.44959376
   A4           119.59277759
   A5           115.41057806
   A6           121.18478865
   A7           125.64062592
   A8           108.76593935
   A9           112.15798710
   A10          108.32581650
   A11          108.89713398
   A12          114.70638301
   A13          121.95193485
   A14          118.47467740
   A15          121.53160714
   A16          118.85205796
   A17          119.88847174
   A18          124.48157723
   A19          119.04412787
   A20          111.76499497
   A21          106.50893181
   A22          111.80605482
   A23          119.42965409
   A24          118.81585608
   A25          119.98654257
   A26          119.35500502
   A27          107.33638030
   A28          115.65443572
   A29          114.92388350
   D1           117.34587191
   D2          -121.14745898
   D3          -176.23447040
   D4           179.49295637
   D5            10.03499517
   D6           172.64598968
   D7           -50.83537154
   D8            69.21892546
   D9           -18.76993724
   D10           97.77669855
   D11         -139.38803739
   D12          -79.71194444
   D13            3.01824271
   D14         -179.03270152
   D15         -179.95651909
   D16           -0.43565511
   D17          179.74082194
   D18            2.49644125
   D19           59.78424772
   D20          178.71078111
   D21          -62.45994130
   D22           -0.41386757
   D23         -179.22023170
   D24            0.50597777
   D25         -178.72385305
   D26         -167.01741271
   D27            9.81195500
   D28         -170.33991265

