%mem=8GB
%nproc=8
# HF/6-31G* scf=tight iop(6/33=2) pop=chelpg

Title Card Required

2 1
 N
 H                  1              B1
 H                  1              B2    2              A1
 H                  1              B3    2              A2    3              D1
 C                  1              B4    4              A3    2              D2
 H                  5              B5    1              A4    4              D3
 C                  5              B6    1              A5    4              D4
 H                  7              B7    5              A6    1              D5
 H                  7              B8    5              A7    1              D6
 C                  7              B9    5              A8    1              D7
 H                 10             B10    7              A9    5              D8
 H                 10             B11    7             A10    5              D9
 C                 10             B12    7             A11    5             D10
 H                 13             B13   10             A12    7             D11
 C                 13             B14   10             A13    7             D12
 H                 15             B15   13             A14   10             D13
 H                 15             B16   13             A15   10             D14
 N                 15             B17   13             A16   10             D15
 H                 18             B18   15             A17   13             D16
 H                 18             B19   15             A18   13             D17
 H                 18             B20   15             A19   13             D18
 O                 13             B21   10             A20    7             D19
 C                 22             B22   13             A21   10             D20
 H                 23             B23   22             A22   13             D21
 H                 23             B24   22             A23   13             D22
 H                 23             B25   22             A24   13             D23
 C                  5             B26    1             A25    7             D24
 O                 27             B27    5             A26    1             D25
 N                 27             B28    5             A27    1             D26
 H                 29             B29   27             A28    5             D27
 C                 29             B30   27             A29    5             D28
 H                 31             B31   29             A30   27             D29
 H                 31             B32   29             A31   27             D30
 H                 31             B33   29             A32   27             D31

   B1             1.01253331
   B2             1.01841823
   B3             1.01061945
   B4             1.50871980
   B5             1.08123234
   B6             1.53947620
   B7             1.08472771
   B8             1.08555923
   B9             1.53795024
   B10            1.08532301
   B11            1.08556838
   B12            1.54541654
   B13            1.08988109
   B14            1.53142034
   B15            1.07972288
   B16            1.08036054
   B17            1.50295997
   B18            1.01138256
   B19            1.01168518
   B20            1.01400628
   B21            1.39435841
   B22            1.41483582
   B23            1.08490016
   B24            1.07816825
   B25            1.08248338
   B26            1.54064842
   B27            1.20410390
   B28            1.32382077
   B29            0.99577878
   B30            1.46621612
   B31            1.08151127
   B32            1.07811696
   B33            1.07939096
   A1           106.62479013
   A2           107.40766572
   A3           113.45492438
   A4           107.28950776
   A5           108.04100482
   A6           108.09875061
   A7           107.98582330
   A8           113.45106917
   A9           108.40808501
   A10          111.10051435
   A11          114.06651471
   A12          110.00759330
   A13          109.24378733
   A14          112.81516974
   A15          110.63479872
   A16          109.24681516
   A17          112.49708062
   A18          112.11668371
   A19          108.59531194
   A20          114.45021215
   A21          119.02986360
   A22          110.84761642
   A23          106.73040417
   A24          110.95051417
   A25          103.17865314
   A26          115.86555758
   A27          117.70190067
   A28          119.53263225
   A29          122.45193608
   A30          110.79365721
   A31          109.15544372
   A32          108.50179172
   D1          -117.40701444
   D2           124.46750108
   D3           -76.48387357
   D4            44.23682062
   D5           -60.08908561
   D6            56.02884920
   D7           177.34711215
   D8           -60.82571286
   D9            56.47760036
   D10          177.88296703
   D11           28.59437740
   D12          148.43601010
   D13          -70.43835801
   D14           52.97770180
   D15          169.44663426
   D16           69.75655415
   D17         -169.25546312
   D18          -49.12037007
   D19          -95.67113538
   D20           73.56651181
   D21           47.94668318
   D22          167.05090487
   D23          -74.73004250
   D24          118.90749804
   D25          -40.26636486
   D26          140.02861092
   D27           -4.17593797
   D28         -179.90286073
   D29          -91.63902599
   D30           28.79766845
   D31          148.10942402

