%mem=8GB
%nproc=8
# HF/6-31G* scf=tight iop(6/33=2) pop=chelpg

Title Card Required

0 1
 C
 H                  1              B1
 H                  1              B2    2              A1
 H                  1              B3    3              A2    2              D1
 C                  1              B4    4              A3    3              D2
 O                  5              B5    1              A4    4              D3
 N                  5              B6    1              A5    6              D4
 H                  7              B7    5              A6    1              D5
 C                  7              B8    5              A7    1              D6
 H                  9              B9    7              A8    5              D7
 C                  9             B10    7              A9    5              D8
 H                 11             B11    9             A10    7              D9
 H                 11             B12    9             A11    7             D10
 C                 11             B13    9             A12    7             D11
 C                 14             B14   11             A13    9             D12
 H                 15             B15   14             A14   11             D13
 C                 15             B16   14             A15   11             D14
 H                 17             B17   15             A16   14             D15
 C                 17             B18   15             A17   14             D16
 O                 19             B19   17             A18   15             D17
 C                 20             B20   19             A19   17             D18
 H                 21             B21   20             A20   19             D19
 H                 21             B22   20             A21   19             D20
 H                 21             B23   20             A22   19             D21
 C                 19             B24   17             A23   15             D22
 H                 25             B25   19             A24   17             D23
 C                 25             B26   19             A25   17             D24
 H                 27             B27   25             A26   19             D25
 C                  9             B28    7             A27    5             D26
 O                 29             B29    9             A28    7             D27
 N                 29             B30    9             A29    7             D28
 H                 31             B31   29             A30    9             D29
 C                 31             B32   29             A31    9             D30
 H                 33             B33   31             A32   29             D31
 H                 33             B34   31             A33   29             D32
 H                 33             B35   31             A34   29             D33

   B1             1.08532701
   B2             1.08511573
   B3             1.07939698
   B4             1.51437764
   B5             1.20348708
   B6             1.35045554
   B7             0.99577990
   B8             1.44261592
   B9             1.08147206
   B10            1.54777824
   B11            1.08295590
   B12            1.08510236
   B13            1.51318040
   B14            1.38242259
   B15            1.07643003
   B16            1.39206876
   B17            1.07274924
   B18            1.38392955
   B19            1.34874681
   B20            1.39881356
   B21            1.08516136
   B22            1.07959606
   B23            1.08490595
   B24            1.39430061
   B25            1.07420755
   B26            1.37660458
   B27            1.07687318
   B28            1.52675716
   B29            1.20566392
   B30            1.34328411
   B31            0.99421540
   B32            1.44767255
   B33            1.08493275
   B34            1.07962879
   B35            1.08167444
   A1           107.94462029
   A2           109.89911676
   A3           109.37736492
   A4           122.65723808
   A5           114.95706635
   A6           121.33254017
   A7           122.14789062
   A8           108.23414640
   A9           111.29780185
   A10          106.32705285
   A11          108.43422445
   A12          114.38673000
   A13          122.07419032
   A14          119.59502516
   A15          121.91605670
   A16          119.10929234
   A17          119.60924982
   A18          124.80372741
   A19          119.71801169
   A20          111.46573470
   A21          106.24898246
   A22          111.43263295
   A23          119.33348726
   A24          118.56920424
   A25          120.21533908
   A26          119.19678192
   A27          106.99889503
   A28          120.76556884
   A29          116.14564464
   A30          118.21152525
   A31          121.59054603
   A32          111.89475284
   A33          109.57610941
   A34          108.69039720
   D1           119.85179352
   D2          -121.13944989
   D3            -0.78638095
   D4          -179.75610191
   D5            -0.41006132
   D6           178.92167806
   D7           -38.16241933
   D8            81.52786664
   D9           -48.90984732
   D10           66.24542473
   D11         -169.96231437
   D12         -107.23570414
   D13           -0.59459646
   D14          179.53937741
   D15          179.75336628
   D16           -0.05235635
   D17         -179.85448469
   D18           -2.04587110
   D19           62.38873850
   D20         -178.84430651
   D21          -60.01913293
   D22            0.15706409
   D23          179.37489687
   D24            0.07830915
   D25          178.95613021
   D26         -156.74460543
   D27          -30.61235283
   D28          149.33032167
   D29            9.54356794
   D30          173.05730307
   D31          -73.35273184
   D32           47.11448082
   D33          166.23464095

