%chk=tyrosine_OCH3_all_opt.chk
%mem=8GB
%nproc=8
# opt=z-matrix HF/6-31G* scf=tight

Title Card Required

0 1
 C
 H                  1              B1
 H                  1              B2    2              A1
 H                  1              B3    2              A2    3              D1
 C                  1              B4    2    109.47120255    3    119.99998525
 O                  5              B5    1              A3    2    119.68339260
 N                  5              B6    1              A4    6              D2
 H                  7              B7    5              A5    6              D3
 C                  7              B8    5              A6    6              D4
 H                  9              B9    7              A7    5              D5
 C                  9             B10    7              A8    5              D6
 H                 11             B11    9              A9    7              D7
 H                 11             B12    9             A10    7              D8
 C                 11             B13    9             A11    7              D9
 C                 14             B14   11             A12    9             D10
 H                 15             B15   14             A13   11             D11
 C                 15             B16   14             A14   11             D12
 H                 17             B17   15             A15   14             D13
 C                 17             B18   15             A16   14             D14
 O                 19             B19   17             A17   15             D15
 C                 20             B20   19             A18   17             D16
 H                 21             B21   20             A19   19             D17
 H                 21             B22   20             A20   19             D18
 H                 21             B23   20             A21   19             D19
 C                 19             B24   17             A22   15             D20
 H                 25             B25   19             A23   17             D21
 C                 25             B26   19             A24   17             D22
 H                 27             B27   25             A25   19             D23
 C                  9             B28    7             A26    5             D24
 O                 29             B29    9             A27    7             D25
 N                 29             B30    9             A28    7             D26
 H                 31             B31   29             A29    9             D27
 C                 31             B32   29             A30    9             D28
 H                 33             B33   31             A31   29             D29
 H                 33             B34   31             A32   29             D30
 H                 33             B35   31             A33   29             D31

   B1             1.07000000
   B2             1.07000000
   B3             1.07000000
   B4             1.54000000
   B5             1.23003740
   B6             1.33514980
   B7             1.00949492
   B8             1.44897895
   B9             1.09038021
   B10            1.52483999
   B11            1.09013073
   B12            1.08979126
   B13            1.51033705
   B14            1.39927017
   B15            1.09025731
   B16            1.40027890
   B17            1.09003853
   B18            1.39985071
   B19            1.36004448
   B20            1.43000000
   B21            1.07000000
   B22            1.07000000
   B23            1.07000000
   B24            1.40007750
   B25            1.09048705
   B26            1.39938987
   B27            1.09054940
   B28            1.52145490
   B29            1.22927621
   B30            1.33496255
   B31            1.01017671
   B32            1.47000000
   B33            1.07000000
   B34            1.07000000
   B35            1.07000000
   A1           109.47125080
   A2           109.47121829
   A3           120.48927206
   A4           116.61416888
   A5           119.98353425
   A6           121.88957362
   A7           109.54170311
   A8           111.10814639
   A9           109.50852833
   A10          109.50943766
   A11          109.49011237
   A12          120.01713210
   A13          120.04032827
   A14          120.02153657
   A15          119.98764848
   A16          119.97156137
   A17          120.01669483
   A18          112.95330125
   A19          109.47120255
   A20          109.47120255
   A21          109.47123134
   A22          120.00554510
   A23          119.99201888
   A24          120.01272678
   A25          120.04371301
   A26          111.10854786
   A27          120.51055789
   A28          116.64837754
   A29          119.95943352
   A30          121.92804260
   A31          109.47120255
   A32          109.47120255
   A33          109.47123134
   D1          -120.00001416
   D2           180.00000000
   D3           180.00000000
   D4            -0.00000000
   D5           -60.01072635
   D6            60.00448368
   D7            12.84164247
   D8           132.85836894
   D9          -107.10000000
   D10         -179.97829341
   D11           -0.04875833
   D12          179.98008114
   D13          179.97257601
   D14            0.00541283
   D15          179.99520204
   D16           -0.00564526
   D17           59.84713969
   D18          179.84715449
   D19          -60.15285291
   D20           -0.06027702
   D21         -179.98911737
   D22            0.07850923
   D23          179.94885884
   D24          180.00000000
   D25            0.00000000
   D26          180.00000000
   D27           -0.00000000
   D28          180.00000000
   D29          -81.43040740
   D30           38.56960740
   D31          158.56960000

