%mem=8GB
%nproc=8
# HF/6-31G* scf=tight iop(6/33=2) pop=chelpg

Title Card Required

1 1
 N
 H                  1              B1
 H                  1              B2    2              A1
 H                  1              B3    2              A2    3              D1
 C                  1              B4    2              A3    3              D2
 H                  5              B5    1              A4    2              D3
 C                  5              B6    1              A5    2              D4
 H                  7              B7    5              A6    1              D5
 H                  7              B8    5              A7    1              D6
 C                  7              B9    5              A8    1              D7
 C                 10             B10    7              A9    5              D8
 H                 11             B11   10             A10    7              D9
 C                 11             B12   10             A11    7             D10
 H                 13             B13   11             A12   10             D11
 C                 13             B14   11             A13   10             D12
 O                 15             B15   13             A14   11             D13
 C                 16             B16   15             A15   13             D14
 H                 17             B17   16             A16   15             D15
 H                 17             B18   16             A17   15             D16
 H                 17             B19   16             A18   15             D17
 C                 15             B20   13             A19   11             D18
 H                 21             B21   15             A20   13             D19
 C                 21             B22   15             A21   13             D20
 H                 23             B23   21             A22   15             D21
 C                  5             B24    1             A23    7             D22
 O                 25             B25    5             A24    1             D23
 N                 25             B26    5             A25    1             D24
 H                 27             B27   25             A26    5             D25
 C                 27             B28   25             A27    5             D26
 H                 29             B29   27             A28   25             D27
 H                 29             B30   27             A29   25             D28
 H                 29             B31   27             A30   25             D29

   B1             1.00894078
   B2             1.01047326
   B3             1.00925242
   B4             1.53999917
   B5             1.08058862
   B6             1.54107995
   B7             1.08761005
   B8             1.08528884
   B9             1.51452675
   B10            1.38360163
   B11            1.07623440
   B12            1.38958452
   B13            1.07200738
   B14            1.38739741
   B15            1.33333867
   B16            1.40766923
   B17            1.08385738
   B18            1.07791972
   B19            1.08354146
   B20            1.39853835
   B21            1.07346245
   B22            1.37337976
   B23            1.07763209
   B24            1.53751453
   B25            1.20630510
   B26            1.32435170
   B27            0.99560233
   B28            1.45928835
   B29            1.08217148
   B30            1.07907430
   B31            1.07958797
   A1           109.07616566
   A2           110.94268066
   A3           109.66836851
   A4           108.23413418
   A5           108.12977744
   A6           107.87292505
   A7           108.92779430
   A8           113.39516225
   A9           121.28224568
   A10          119.98964984
   A11          121.60993797
   A12          119.10532532
   A13          119.70566781
   A14          125.00073336
   A15          120.49617821
   A16          111.10297295
   A17          105.93471809
   A18          111.05568695
   A19          119.26169089
   A20          118.46866699
   A21          120.24288928
   A22          118.54027728
   A23          103.29428972
   A24          117.37350269
   A25          117.10211772
   A26          119.32104112
   A27          121.61409115
   A28          111.15189348
   A29          109.63561672
   A30          108.18481319
   D1          -117.08338362
   D2           119.87832561
   D3           -53.03997301
   D4            66.65033894
   D5           -48.08328510
   D6            67.63716226
   D7          -169.32486315
   D8          -111.55199300
   D9             0.54927149
   D10         -179.03787781
   D11          179.56794251
   D12            0.12904814
   D13         -179.92623485
   D14           -2.60428123
   D15           62.66272196
   D16         -178.66764615
   D17          -59.92589336
   D18            0.06039691
   D19          179.21786680
   D20            0.17612598
   D21          178.32864648
   D22          123.06530664
   D23           -6.85329263
   D24          171.65115891
   D25            7.55809209
   D26          179.07539991
   D27          -75.13245226
   D28           45.51554403
   D29          164.68378848

