%chk=CTYR_all_opt.chk
%mem=8GB
%nproc=8
# opt=z-matrix HF/6-31G* scf=tight

Title Card Required

1 1
 N
 H                  1              B1
 H                  1              B2    2              A1
 H                  1              B3    3              A2    2              D1
 C                  1      1.54000000    3    109.47120255    2   -119.99998525
 H                  5              B4    1    108.23414640    2    -53.03996815
 C                  5              B5    1              A3    6    119.69028598
 H                  7              B6    5              A4    6              D2
 H                  7              B7    5              A5    6              D3
 C                  7              B8    5              A6    6              D4
 C                 10              B9    7              A7    5              D5
 H                 11             B10   10              A8    7              D6
 C                 11             B11   10              A9    7              D7
 H                 13             B12   11             A10   10              D8
 C                 13             B13   11             A11   10              D9
 O                 15             B14   13             A12   11             D10
 C                 16             B15   15             A13   13             D11
 H                 17             B16   16             A14   15             D12
 H                 17             B17   16             A15   15             D13
 H                 17             B18   16             A16   15             D14
 C                 15             B19   13             A17   11             D15
 H                 21             B20   15             A18   13             D16
 C                 21             B21   15             A19   13             D17
 H                 23             B22   21             A20   15             D18
 C                  5             B23    7             A21   10             D19
 O                 25             B24    5             A22    7             D20
 N                 25             B25    5             A23    7             D21
 H                 27             B26   25             A24    5             D22
 C                 27             B27   25             A25    5             D23
 H                 29             B28   27             A26   25             D24
 H                 29             B29   27             A27   25             D25
 H                 29             B30   27             A28   25             D26

   B1             1.07000000
   B2             1.07000000
   B3             1.07000000
   B4             1.08147206
   B5             1.54777824
   B6             1.08295590
   B7             1.08510236
   B8             1.51318040
   B9             1.38242259
   B10            1.07643003
   B11            1.39206876
   B12            1.07274924
   B13            1.38392955
   B14            1.34874681
   B15            1.39881356
   B16            1.08516136
   B17            1.07959606
   B18            1.08490595
   B19            1.39430061
   B20            1.07420755
   B21            1.37660458
   B22            1.07687318
   B23            1.52675716
   B24            1.20566392
   B25            1.34328411
   B26            0.99421540
   B27            1.44767255
   B28            1.08493275
   B29            1.07962879
   B30            1.08167444
   A1           109.47125080
   A2           109.47121829
   A3           111.29780185
   A4           106.32705285
   A5           108.43422445
   A6           114.38673000
   A7           122.07419032
   A8           119.59502516
   A9           121.91605670
   A10          119.10929234
   A11          119.60924982
   A12          124.80372741
   A13          119.71801169
   A14          111.46573470
   A15          106.24898246
   A16          111.43263295
   A17          119.33348726
   A18          118.56920424
   A19          120.21533908
   A20          119.19678192
   A21          111.24592936
   A22          120.76556884
   A23          116.14564464
   A24          118.21152525
   A25          121.59054603
   A26          111.89475284
   A27          109.57610941
   A28          108.69039720
   D1           120.00001416
   D2            70.35748107
   D3          -174.48724687
   D4           -50.69498598
   D5          -107.23570414
   D6            -0.59459646
   D7           179.53937741
   D8           179.75336628
   D9            -0.05235635
   D10         -179.85448469
   D11           -2.04587110
   D12           62.38873850
   D13         -178.84430651
   D14          -60.01913293
   D15            0.15706409
   D16          179.37489687
   D17            0.07830915
   D18          178.95613021
   D19           70.81315615
   D20           91.14781753
   D21          -88.90950797
   D22            9.54356794
   D23          173.05730307
   D24          -73.35273184
   D25           47.11448082
   D26          166.23464095

