%mem=8GB
%nproc=8
# HF/6-31G* scf=tight iop(6/33=2) pop=chelpg

Title Card Required

0 1
 C
 H                  1              B1
 H                  1              B2    2              A1
 H                  1              B3    3              A2    2              D1
 C                  1              B4    4              A3    2              D2
 O                  5              B5    1              A4    4              D3
 N                  5              B6    1              A5    6              D4
 H                  7              B7    5              A6    1              D5
 C                  7              B8    5              A7    1              D6
 H                  9              B9    7              A8    5              D7
 C                  9             B10    7              A9    5              D8
 H                 11             B11    9             A10    7              D9
 H                 11             B12    9             A11    7             D10
 C                 11             B13    9             A12    7             D11
 H                 14             B14   11             A13    9             D12
 H                 14             B15   11             A14    9             D13
 C                 14             B16   11             A15    9             D14
 H                 17             B17   14             A16   11             D15
 C                 17             B18   14             A17   11             D16
 H                 19             B19   17             A18   14             D17
 H                 19             B20   17             A19   14             D18
 N                 19             B21   17             A20   14             D19
 H                 22             B22   19             A21   17             D20
 H                 22             B23   19             A22   17             D21
 H                 22             B24   19             A23   17             D22
 O                 17             B25   14             A24   11             D23
 C                 26             B26   17             A25   14             D24
 H                 27             B27   26             A26   17             D25
 H                 27             B28   26             A27   17             D26
 H                 27             B29   26             A28   17             D27
 C                  9             B30    7             A29    5             D28
 O                 31             B31    9             A30    7             D29
 O                 31             B32    9             A31    7             D30

   B1             1.08437844
   B2             1.08347083
   B3             1.08240927
   B4             1.51514517
   B5             1.20472968
   B6             1.34490023
   B7             0.99503432
   B8             1.44610332
   B9             1.07870251
   B10            1.55347840
   B11            1.08292174
   B12            1.08536233
   B13            1.54483014
   B14            1.08235347
   B15            1.08412994
   B16            1.55309904
   B17            1.08658183
   B18            1.53656548
   B19            1.08096344
   B20            1.07967100
   B21            1.48902899
   B22            1.07567763
   B23            1.00551740
   B24            1.01102054
   B25            1.40465194
   B26            1.39784305
   B27            1.08745216
   B28            1.08079531
   B29            1.08507308
   B30            1.52173381
   B31            1.25451538
   B32            1.23147294
   A1           108.79363933
   A2           109.50443737
   A3           108.72808605
   A4           121.13254813
   A5           115.82596095
   A6           120.99127491
   A7           123.21178781
   A8           109.14421947
   A9           111.28247546
   A10          107.23253066
   A11          107.43618277
   A12          115.97087362
   A13          109.50167114
   A14          109.40680152
   A15          114.74588723
   A16          109.77274478
   A17          115.41865838
   A18          111.42628827
   A19          108.06450778
   A20          112.89232256
   A21          112.71149778
   A22          111.44353455
   A23          111.98898807
   A24          111.67293829
   A25          115.84126258
   A26          111.07957927
   A27          107.01843017
   A28          112.08774994
   A29          109.47195183
   A30          115.65204125
   A31          118.10441692
   D1           117.49703363
   D2           117.36372185
   D3           -47.62378517
   D4          -179.02658939
   D5            -3.79682160
   D6           177.68430651
   D7           -40.71944185
   D8            80.09057974
   D9           -79.31591038
   D10           34.95143748
   D11          157.67503498
   D12           33.32059820
   D13          149.26183796
   D14          -91.65232391
   D15            9.77239035
   D16          132.02421287
   D17           39.89313722
   D18          159.43737004
   D19          -81.31731195
   D20           61.95635563
   D21         -173.69711187
   D22          -51.28552620
   D23         -111.19877669
   D24           72.32076587
   D25           57.01873012
   D26          175.97604431
   D27          -64.84472563
   D28         -159.90419763
   D29          147.58513594
   D30          -40.57068183


