%chk=lysine_OCH3_all_opt.chk
%mem=8GB
%nproc=8
# opt=z-matrix HF/6-31G* scf=tight

Title Card Required

1 1
 C
 H                  1              B1
 H                  1              B2    2              A1
 H                  1              B3    2              A2    3              D1
 C                  1              B4    2    109.47120255    3    119.99998525
 O                  5              B5    1              A3    2    119.54469260
 N                  5              B6    1              A4    6              D2
 H                  7              B7    5              A5    6              D3
 C                  7              B8    5              A6    6              D4
 H                  9              B9    7              A7    5              D5
 C                  9             B10    7              A8    5              D6
 H                 11             B11    9              A9    7              D7
 H                 11             B12    9             A10    7              D8
 C                 11             B13    9             A11    7              D9
 H                 14             B14   11             A12    9             D10
 H                 14             B15   11             A13    9             D11
 C                 14             B16   11             A14    9             D12
 H                 17             B17   14             A15   11             D13
 C                 17             B18   14             A16   11             D14
 H                 19             B19   17             A17   14             D15
 H                 19             B20   17             A18   14             D16
 N                 19             B21   17             A19   14             D17
 H                 22             B22   19             A20   17             D18
 H                 22             B23   19             A21   17             D19
 H                 22             B24   19             A22   17             D20
 O                 17             B25   14             A23   11             D21
 C                 26             B26   17             A24   14             D22
 H                 27             B27   26             A25   17             D23
 H                 27             B28   26             A26   17             D24
 H                 27             B29   26             A27   17             D25
 C                  9             B30    7             A28    5             D26
 O                 31             B31    9             A29    7             D27
 N                 31             B32    9             A30    7             D28
 H                 33             B33   31             A31    9             D29
 C                 33             B34   31             A32    9             D30
 H                 35             B35   33             A33   31             D31
 H                 35             B36   33             A34   31             D32
 H                 35             B37   33             A35   31             D33

   B1             1.07000000
   B2             1.07000000
   B3             1.07000000
   B4             1.54000000
   B5             1.23003740
   B6             1.33514980
   B7             1.00949492
   B8             1.44897895
   B9             1.09038021
   B10            1.52483999
   B11            1.09013073
   B12            1.08979126
   B13            1.52509475
   B14            1.08986100
   B15            1.09028528
   B16            1.52483999
   B17            1.09006697
   B18            1.52511934
   B19            1.08999541
   B20            1.08946088
   B21            1.47031493
   B22            1.01031233
   B23            1.01018464
   B24            1.00923734
   B25            1.43000000
   B26            1.43000000
   B27            1.07000000
   B28            1.07000000
   B29            1.07000000
   B30            1.52145490
   B31            1.22927621
   B32            1.33496255
   B33            1.01017672
   B34            1.47000000
   B35            1.07000000
   B36            1.07000000
   B37            1.07000000
   A1           109.47125080
   A2           109.47121829
   A3           120.48927206
   A4           116.61416888
   A5           119.98353425
   A6           121.88957362
   A7           109.54170311
   A8           111.10814639
   A9           109.50852833
   A10          109.50943766
   A11          109.49651461
   A12          109.51034324
   A13          109.49988444
   A14          109.49651461
   A15          109.48993244
   A16          109.46399131
   A17          109.45826677
   A18          109.54641357
   A19          109.45898286
   A20          109.47052104
   A21          109.45679781
   A22          109.46367540
   A23          109.48150028
   A24          109.50000006
   A25          109.47120255
   A26          109.47120255
   A27          109.47123134
   A28          111.10854786
   A29          120.51055789
   A30          116.64837754
   A31          119.95943383
   A32          121.92804260
   A33          109.47120255
   A34          109.47120255
   A35          109.47123134
   D1          -120.00001416
   D2           180.00000000
   D3           180.00000000
   D4            -0.00000000
   D5           -60.01072635
   D6            60.00448368
   D7           -60.05307949
   D8            59.96364698
   D9           179.98821906
   D10          -59.98105360
   D11           59.96755818
   D12          180.00000000
   D13           60.02487885
   D14         -179.98007756
   D15          -59.99976751
   D16           59.99542751
   D17         -180.00000000
   D18           59.99732512
   D19          179.97555104
   D20          -60.02086579
   D21          -59.99407553
   D22          157.81268257
   D23          106.61357038
   D24         -133.38641482
   D25          -13.38642222
   D26          180.00000000
   D27            0.00000000
   D28          180.00000000
   D29           -0.00000000
   D30         -180.00000000
   D31          176.37309260
   D32          -63.62689260
   D33           56.37310000

